<?xml version="1.0" encoding="UTF-8"?>

<!-- generated on 02/19/22 20:29:01 by Eclipse SUMO netconvert Version 1.8.0
<configuration xmlns:xsi="http://www.w3.org/2001/XMLSchema-instance" xsi:noNamespaceSchemaLocation="http://sumo.dlr.de/xsd/netconvertConfiguration.xsd">

    <input>
        <type-files value="C:\Users\Public\sumo_fol\sumo-1.8.0\data\typemap\osmNetconvert.typ.xml"/>
        <osm-files value="mamora.osm.xml"/>
    </input>

    <output>
        <output-file value="maamora.net.xml"/>
    </output>

    <projection>
        <proj.utm value="true"/>
    </projection>

    <processing>
        <geometry.remove value="true"/>
        <roundabouts.guess value="true"/>
    </processing>

    <tls_building>
        <tls.discard-simple value="true"/>
        <tls.join value="true"/>
        <tls.guess-signals value="true"/>
    </tls_building>

    <ramp_guessing>
        <ramps.guess value="true"/>
    </ramp_guessing>

    <edge_removal>
        <remove-edges.by-vclass value="rail,rail_electric,bicycle,pedestrian"/>
        <remove-edges.by-type value="rail,rail_urban,rail_electric,railway.tram,railway.subway"/>
    </edge_removal>

    <junctions>
        <no-internal-links value="true"/>
        <junctions.join value="true"/>
    </junctions>

    <report>
        <aggregate-warnings value="5"/>
    </report>

</configuration>
-->

<net version="1.6" junctionCornerDetail="5" limitTurnSpeed="5.50" xmlns:xsi="http://www.w3.org/2001/XMLSchema-instance" xsi:noNamespaceSchemaLocation="http://sumo.dlr.de/xsd/net_file.xsd">

    <location netOffset="-215884.74,-3464492.65" convBoundary="0.00,0.00,3506.61,1209.97" origBoundary="30.015779,31.280138,30.060404,31.313507" projParameter="+proj=utm +zone=36 +ellps=WGS84 +datum=WGS84 +units=m +no_defs"/>

    <type id="highway.bridleway" priority="1" numLanes="1" speed="2.78" allow="pedestrian" oneway="1" width="2.00"/>
    <type id="highway.bus_guideway" priority="1" numLanes="1" speed="27.78" allow="bus" oneway="1"/>
    <type id="highway.cycleway" priority="1" numLanes="1" speed="8.33" allow="bicycle" oneway="0" width="1.00"/>
    <type id="highway.footway" priority="1" numLanes="1" speed="2.78" allow="pedestrian" oneway="1" width="2.00"/>
    <type id="highway.ford" priority="1" numLanes="1" speed="2.78" allow="army" oneway="0"/>
    <type id="highway.living_street" priority="2" numLanes="1" speed="2.78" disallow="tram rail_urban rail rail_electric rail_fast ship" oneway="0"/>
    <type id="highway.motorway" priority="14" numLanes="2" speed="39.44" allow="private emergency authority army vip passenger hov taxi bus coach delivery truck trailer motorcycle evehicle custom1 custom2" oneway="1"/>
    <type id="highway.motorway_link" priority="9" numLanes="1" speed="22.22" allow="private emergency authority army vip passenger hov taxi bus coach delivery truck trailer motorcycle evehicle custom1 custom2" oneway="1"/>
    <type id="highway.path" priority="1" numLanes="1" speed="2.78" allow="pedestrian bicycle" oneway="0" width="2.00"/>
    <type id="highway.pedestrian" priority="1" numLanes="1" speed="2.78" allow="pedestrian" oneway="1" width="2.00"/>
    <type id="highway.primary" priority="12" numLanes="2" speed="27.78" disallow="tram rail_urban rail rail_electric rail_fast ship" oneway="0"/>
    <type id="highway.primary_link" priority="7" numLanes="1" speed="22.22" disallow="tram rail_urban rail rail_electric rail_fast ship" oneway="0"/>
    <type id="highway.raceway" priority="15" numLanes="2" speed="83.33" allow="vip" oneway="0"/>
    <type id="highway.residential" priority="3" numLanes="1" speed="13.89" disallow="tram rail_urban rail rail_electric rail_fast ship" oneway="0"/>
    <type id="highway.secondary" priority="11" numLanes="1" speed="27.78" disallow="tram rail_urban rail rail_electric rail_fast ship" oneway="0"/>
    <type id="highway.secondary_link" priority="6" numLanes="1" speed="22.22" disallow="tram rail_urban rail rail_electric rail_fast ship" oneway="0"/>
    <type id="highway.service" priority="1" numLanes="1" speed="5.56" allow="pedestrian delivery bicycle" oneway="0"/>
    <type id="highway.stairs" priority="1" numLanes="1" speed="1.39" allow="pedestrian" oneway="1" width="2.00"/>
    <type id="highway.step" priority="1" numLanes="1" speed="1.39" allow="pedestrian" oneway="1" width="2.00"/>
    <type id="highway.steps" priority="1" numLanes="1" speed="1.39" allow="pedestrian" oneway="1" width="2.00"/>
    <type id="highway.tertiary" priority="10" numLanes="1" speed="22.22" disallow="tram rail_urban rail rail_electric rail_fast ship" oneway="0"/>
    <type id="highway.tertiary_link" priority="5" numLanes="1" speed="22.22" disallow="tram rail_urban rail rail_electric rail_fast ship" oneway="0"/>
    <type id="highway.track" priority="1" numLanes="1" speed="5.56" allow="pedestrian motorcycle moped bicycle" oneway="0"/>
    <type id="highway.trunk" priority="13" numLanes="2" speed="27.78" disallow="pedestrian bicycle tram rail_urban rail rail_electric rail_fast ship" oneway="0"/>
    <type id="highway.trunk_link" priority="8" numLanes="1" speed="22.22" disallow="pedestrian bicycle tram rail_urban rail rail_electric rail_fast ship" oneway="0"/>
    <type id="highway.unclassified" priority="4" numLanes="1" speed="13.89" disallow="tram rail_urban rail rail_electric rail_fast ship" oneway="0"/>
    <type id="highway.unsurfaced" priority="1" numLanes="1" speed="8.33" disallow="tram rail_urban rail rail_electric rail_fast ship" oneway="0"/>
    <type id="railway.highspeed" priority="21" numLanes="1" speed="69.44" allow="rail_fast" oneway="1"/>
    <type id="railway.light_rail" priority="19" numLanes="1" speed="27.78" allow="rail_urban" oneway="1"/>
    <type id="railway.preserved" priority="16" numLanes="1" speed="27.78" allow="rail" oneway="1"/>
    <type id="railway.rail" priority="20" numLanes="1" speed="44.44" allow="rail" oneway="1"/>
    <type id="railway.subway" priority="18" numLanes="1" speed="27.78" allow="rail_urban" oneway="1"/>
    <type id="railway.tram" priority="17" numLanes="1" speed="13.89" allow="tram" oneway="1"/>

    <edge id="-35211929#0" from="6122961727" to="412887736" priority="3" type="highway.residential" shape="1830.07,977.29 1902.20,1001.18 1993.49,1035.70">
        <lane id="-35211929#0_0" index="0" disallow="tram rail_urban rail rail_electric rail_fast ship" speed="13.89" length="173.59" shape="1837.44,978.04 1902.73,999.67 1994.06,1034.20"/>
    </edge>
    <edge id="-35211929#1" from="cluster_412887728_6935286594" to="6122961727" priority="3" type="highway.residential" shape="1622.36,906.93 1698.89,932.64 1764.40,954.96 1830.07,977.29">
        <lane id="-35211929#1_0" index="0" disallow="tram rail_urban rail rail_electric rail_fast ship" speed="13.89" length="222.77" shape="1629.76,907.73 1699.40,931.13 1764.92,953.45 1823.75,973.45"/>
    </edge>
    <edge id="-35211929#10" from="412887784" to="cluster_412887741_6490537932" priority="3" type="highway.residential" shape="1182.79,756.09 1252.73,781.66">
        <lane id="-35211929#10_0" index="0" disallow="tram rail_urban rail rail_electric rail_fast ship" speed="13.89" length="78.10" shape="1190.14,757.08 1246.49,777.68"/>
    </edge>
    <edge id="-35211929#11" from="412887742" to="412887784" priority="3" type="highway.residential" shape="1030.38,703.37 1055.02,713.23 1117.38,733.67 1182.79,756.09">
        <lane id="-35211929#11_0" index="0" disallow="tram rail_urban rail rail_electric rail_fast ship" speed="13.89" length="161.31" shape="1030.97,701.88 1055.57,711.72 1117.89,732.16 1176.47,752.24"/>
    </edge>
    <edge id="-35211929#3" from="6122961730" to="cluster_412887728_6935286594" priority="3" type="highway.residential" shape="1551.13,882.94 1615.77,904.71">
        <lane id="-35211929#3_0" index="0" disallow="tram rail_urban rail rail_electric rail_fast ship" speed="13.89" length="71.69" shape="1558.46,883.72 1609.51,900.92"/>
    </edge>
    <edge id="-35211929#4" from="6123022804" to="6122961730" priority="3" type="highway.residential">
        <lane id="-35211929#4_0" index="0" disallow="tram rail_urban rail rail_electric rail_fast ship" speed="13.89" length="67.39" shape="1494.32,863.21 1544.70,879.21"/>
    </edge>
    <edge id="-35211929#6" from="412887775" to="6123022804" priority="3" type="highway.residential" shape="1386.70,827.92 1438.81,845.28 1486.91,862.53">
        <lane id="-35211929#6_0" index="0" disallow="tram rail_urban rail rail_electric rail_fast ship" speed="13.89" length="106.03" shape="1394.09,828.69 1439.33,843.77 1480.63,858.58"/>
    </edge>
    <edge id="-35211929#7" from="6122935982" to="412887775" priority="3" type="highway.residential">
        <lane id="-35211929#7_0" index="0" disallow="tram rail_urban rail rail_electric rail_fast ship" speed="13.89" length="65.01" shape="1332.64,807.42 1380.41,824.04"/>
    </edge>
    <edge id="-35211929#8" from="cluster_412887741_6490537932" to="6122935982" priority="3" type="highway.residential" shape="1259.60,784.03 1325.30,806.55">
        <lane id="-35211929#8_0" index="0" disallow="tram rail_urban rail rail_electric rail_fast ship" speed="13.89" length="73.08" shape="1266.91,784.84 1319.01,802.71"/>
    </edge>
    <edge id="-35211934" from="412887765" to="412887756" priority="3" type="highway.residential" shape="1803.56,523.74 1770.72,500.03 1763.82,495.53 1756.11,492.60 1747.95,491.38 1680.32,492.42">
        <lane id="-35211934_0" index="0" disallow="tram rail_urban rail rail_electric rail_fast ship" speed="13.89" length="132.88" shape="1795.75,520.08 1769.81,501.35 1763.09,496.97 1755.70,494.16 1747.85,492.98 1687.86,493.90"/>
    </edge>
    <edge id="-35211935#0" from="6123022804" to="4137125002" priority="3" type="highway.residential" shape="1486.91,862.53 1446.68,976.03 1427.57,1037.60">
        <lane id="-35211935#0_0" index="0" disallow="tram rail_urban rail rail_electric rail_fast ship" speed="13.89" length="184.89" shape="1486.02,869.84 1448.20,976.54 1429.10,1038.07"/>
    </edge>
    <edge id="-35211935#1" from="cluster_412887771_6121897568_6121911487_6935282963" to="6123022804" priority="3" type="highway.residential" shape="1512.81,786.76 1486.91,862.53">
        <lane id="-35211935#1_0" index="0" disallow="tram rail_urban rail rail_electric rail_fast ship" speed="13.89" length="91.73" shape="1512.56,792.45 1490.78,856.17"/>
    </edge>
    <edge id="-35211937#0" from="412887775" to="412887773" priority="3" type="highway.residential" shape="1386.70,827.92 1347.67,938.75 1325.89,1001.22">
        <lane id="-35211937#0_0" index="0" disallow="tram rail_urban rail rail_electric rail_fast ship" speed="13.89" length="183.66" shape="1385.81,835.25 1349.18,939.28 1327.40,1001.75"/>
    </edge>
    <edge id="-35211937#1" from="cluster_412887777_6121897567_6121911486_6935282964" to="412887775" priority="3" type="highway.residential" shape="1413.48,752.19 1386.70,827.92">
        <lane id="-35211937#1_0" index="0" disallow="tram rail_urban rail rail_electric rail_fast ship" speed="13.89" length="92.25" shape="1413.12,758.01 1390.63,821.61"/>
    </edge>
    <edge id="-35211938" from="6122935982" to="412887778" priority="3" type="highway.residential">
        <lane id="-35211938_0" index="0" disallow="tram rail_urban rail rail_electric rail_fast ship" speed="13.89" length="182.80" shape="1324.48,813.90 1267.87,980.11"/>
    </edge>
    <edge id="-35211939" from="412887784" to="412887782" priority="3" type="highway.residential">
        <lane id="-35211939_0" index="0" disallow="tram rail_urban rail rail_electric rail_fast ship" speed="13.89" length="183.92" shape="1181.90,763.46 1123.41,930.17"/>
    </edge>
    <edge id="-35211951#1" from="cluster_412887855_5550352533" to="cluster_412887814_6121875034" priority="3" type="highway.residential" shape="1839.14,629.68 1834.57,623.85 1782.22,552.99">
        <lane id="-35211951#1_0" index="0" disallow="tram rail_urban rail rail_electric rail_fast ship" speed="13.89" length="107.63" shape="1834.34,626.16 1833.30,624.82 1785.31,559.88"/>
    </edge>
    <edge id="-35211951#3" from="412887858" to="cluster_412887855_5550352533" priority="3" type="highway.residential" shape="1923.17,670.06 1877.59,653.47 1866.99,649.80 1857.02,644.66 1848.08,638.74">
        <lane id="-35211951#3_0" index="0" disallow="tram rail_urban rail rail_electric rail_fast ship" speed="13.89" length="87.93" shape="1918.29,669.98 1877.05,654.98 1866.35,651.28 1856.43,646.15"/>
    </edge>
    <edge id="-35211951#4" from="412887824" to="412887858" priority="3" type="highway.residential">
        <lane id="-35211951#4_0" index="0" disallow="tram rail_urban rail rail_electric rail_fast ship" speed="13.89" length="12.39" shape="1927.55,673.34 1927.14,673.19"/>
    </edge>
    <edge id="-35211951#5" from="412887839" to="412887824" priority="3" type="highway.residential">
        <lane id="-35211951#5_0" index="0" disallow="tram rail_urban rail rail_electric rail_fast ship" speed="13.89" length="149.09" shape="2067.54,724.43 1941.09,678.26"/>
    </edge>
    <edge id="-35211951#6" from="6478555041" to="412887839" priority="3" type="highway.residential" shape="2157.25,755.44 2149.41,752.65 2074.87,725.41">
        <lane id="-35211951#6_0" index="0" disallow="tram rail_urban rail rail_electric rail_fast ship" speed="13.89" length="87.69" shape="2156.71,756.95 2148.87,754.15 2081.06,729.37"/>
    </edge>
    <edge id="-35211956#0" from="412887841" to="6123022802" priority="3" type="highway.residential">
        <lane id="-35211956#0_0" index="0" disallow="tram rail_urban rail rail_electric rail_fast ship" speed="13.89" length="145.58" shape="2017.81,857.86 1894.28,813.63"/>
    </edge>
    <edge id="-35211956#1" from="412887837" to="412887841" priority="3" type="highway.residential">
        <lane id="-35211956#1_0" index="0" disallow="tram rail_urban rail rail_electric rail_fast ship" speed="13.89" length="58.82" shape="2079.44,881.21 2031.17,862.80"/>
    </edge>
    <edge id="-35211957#0" from="412887846" to="412887839" priority="3" type="highway.residential">
        <lane id="-35211957#0_0" index="0" disallow="tram rail_urban rail rail_electric rail_fast ship" speed="13.89" length="72.02" shape="2050.65,785.66 2070.85,731.61"/>
    </edge>
    <edge id="-35211957#1" from="412887841" to="412887846" priority="3" type="highway.residential">
        <lane id="-35211957#1_0" index="0" disallow="tram rail_urban rail rail_electric rail_fast ship" speed="13.89" length="70.33" shape="2026.06,851.50 2045.61,799.15"/>
    </edge>
    <edge id="-35211959" from="412887846" to="6123022801" priority="3" type="highway.residential">
        <lane id="-35211959_0" index="0" disallow="tram rail_urban rail rail_electric rail_fast ship" speed="13.89" length="147.30" shape="2042.24,792.04 1916.51,749.35"/>
    </edge>
    <edge id="-35211962" from="412887854" to="412887858" priority="1" type="highway.service">
        <lane id="-35211962_0" index="0" allow="pedestrian delivery bicycle" speed="5.56" length="45.30" shape="1939.01,634.48 1926.43,666.19"/>
    </edge>
    <edge id="-35211968#0" from="cluster_6944772549_6944772587" to="6478663387" priority="3" type="highway.residential" shape="2005.83,486.91 2010.46,490.52 2016.17,491.93 2275.05,522.58 2283.76,525.25">
        <lane id="-35211968#0_0" index="0" disallow="tram rail_urban rail rail_electric rail_fast ship" speed="13.89" length="286.78" shape="2012.62,489.41 2016.45,490.36 2275.38,521.00 2284.22,523.72"/>
    </edge>
    <edge id="-35211968#2" from="4168310820" to="cluster_6944772549_6944772587" priority="3" type="highway.residential" shape="2011.17,430.46 2003.51,474.44">
        <lane id="-35211968#2_0" index="0" disallow="tram rail_urban rail rail_electric rail_fast ship" speed="13.89" length="50.77" shape="2012.75,430.74 2006.25,468.04"/>
    </edge>
    <edge id="-35211970#0" from="cluster_6480493110_6953815264" to="cluster_5550073721_6480558192_6480558204" priority="3" type="highway.residential" shape="1472.35,745.97 1532.50,572.11">
        <lane id="-35211970#0_0" index="0" disallow="tram rail_urban rail rail_electric rail_fast ship" speed="13.89" length="188.93" shape="1472.65,740.21 1528.50,578.76"/>
    </edge>
    <edge id="-579542704" from="5550073411" to="5550073408" priority="1" type="highway.service" shape="1590.71,702.23 1613.92,711.39 1615.37,711.75 1616.83,711.39 1617.95,710.40 1620.08,705.57 1620.08,703.73 1619.16,702.13 1617.58,701.19 1594.23,692.33">
        <lane id="-579542704_0" index="0" allow="pedestrian delivery bicycle" speed="5.56" length="65.23" shape="1595.77,702.51 1614.41,709.87 1615.37,710.11 1616.06,709.94 1616.62,709.43 1618.48,705.23 1618.48,704.15 1617.98,703.29 1616.88,702.63 1598.12,695.51"/>
    </edge>
    <edge id="-579582223#0" from="cluster_5550352527_6935282971" to="5550352526" priority="3" type="highway.residential" shape="1765.18,848.12 1781.68,804.52">
        <lane id="-579582223#0_0" index="0" disallow="tram rail_urban rail rail_electric rail_fast ship" speed="13.89" length="51.17" shape="1765.70,842.21 1780.19,803.95"/>
    </edge>
    <edge id="-579582225#0" from="cluster_5550352531_6121766272" to="5550352530" priority="3" type="highway.residential" shape="1697.43,701.89 1778.86,726.09">
        <lane id="-579582225#0_0" index="0" disallow="tram rail_urban rail rail_electric rail_fast ship" speed="13.89" length="90.03" shape="1704.81,702.41 1779.31,724.55"/>
    </edge>
    <edge id="-579582226" from="cluster_412887855_5550352533" to="5550352532" priority="3" type="highway.residential" shape="1839.14,629.68 1819.74,686.94">
        <lane id="-579582226_0" index="0" disallow="tram rail_urban rail rail_electric rail_fast ship" speed="13.89" length="59.42" shape="1837.17,640.48 1821.26,687.46"/>
    </edge>
    <edge id="-579584042#3" from="6944772553" to="6944772563" priority="3" type="highway.residential" shape="1912.42,561.06 1902.78,561.95 1888.73,563.23 1875.76,564.43 1863.37,565.86 1861.14,566.52 1859.58,567.81 1859.08,569.78 1859.22,583.77 1859.45,585.53 1860.00,587.22 1860.86,588.78 1861.71,591.02 1862.27,593.35 1862.54,595.73 1866.52,634.05">
        <lane id="-579584042#3_0" index="0" disallow="tram rail_urban rail rail_electric rail_fast ship" speed="13.89" length="120.71" shape="1905.47,563.31 1902.93,563.54 1888.88,564.83 1875.93,566.02 1863.70,567.43 1861.91,567.96 1861.00,568.71 1860.68,569.97 1860.82,583.66 1861.02,585.18 1861.48,586.59 1862.31,588.10 1863.24,590.54 1863.85,593.08 1864.13,595.56 1867.33,626.34"/>
    </edge>
    <edge id="-579584042#9" from="cluster_412887860_6944772569" to="6944772553" priority="3" type="highway.residential" shape="1994.74,554.32 1977.74,555.09 1963.35,556.41 1950.32,557.59 1936.38,558.88 1922.69,560.36 1912.42,561.06">
        <lane id="-579584042#9_0" index="0" disallow="tram rail_urban rail rail_electric rail_fast ship" speed="13.89" length="86.94" shape="1984.31,556.40 1977.85,556.69 1963.49,558.00 1950.47,559.19 1936.54,560.47 1922.83,561.95 1919.72,562.16"/>
    </edge>
    <edge id="-579595386#0" from="6944772548" to="6121875051" priority="3" type="highway.residential" shape="1908.53,471.76 1909.05,465.80 1909.78,459.14 1912.85,404.64">
        <lane id="-579595386#0_0" index="0" disallow="tram rail_urban rail rail_electric rail_fast ship" speed="13.89" length="67.27" shape="1907.61,464.26 1908.18,459.00 1910.84,411.92"/>
    </edge>
    <edge id="-579595386#1" from="6944772553" to="6944772548" priority="3" type="highway.residential" shape="1912.42,561.06 1908.10,497.97 1907.95,489.47 1908.08,480.97 1908.53,471.76">
        <lane id="-579595386#1_0" index="0" disallow="tram rail_urban rail rail_electric rail_fast ship" speed="13.89" length="89.46" shape="1910.34,553.99 1906.50,498.04 1906.34,489.47 1906.48,480.91 1906.58,478.81"/>
    </edge>
    <edge id="-653314943#1" from="6122838871" to="cluster_6122838861_6513223044" priority="3" type="highway.residential" shape="1585.45,84.48 1593.81,105.50 1639.80,218.36 1665.64,285.97 1689.73,340.34 1692.42,347.70 1693.43,354.22 1694.36,360.37">
        <lane id="-653314943#1_0" index="0" disallow="tram rail_urban rail rail_electric rail_fast ship" speed="13.89" length="305.04" shape="1586.94,83.89 1595.30,104.90 1641.28,217.77 1667.12,285.36 1691.22,339.74 1693.98,347.30 1694.76,352.35"/>
    </edge>
    <edge id="-653330667" from="6122961730" to="4137125860" priority="3" type="highway.residential">
        <lane id="-653330667_0" index="0" disallow="tram rail_urban rail rail_electric rail_fast ship" speed="13.89" length="184.74" shape="1550.32,890.33 1493.34,1058.41"/>
    </edge>
    <edge id="-690499352#0" from="6122961727" to="412887807" priority="3" type="highway.residential" shape="1830.07,977.29 1794.55,1080.01 1770.59,1150.97">
        <lane id="-690499352#0_0" index="0" disallow="tram rail_urban rail rail_electric rail_fast ship" speed="13.89" length="183.59" shape="1829.22,984.63 1796.06,1080.53 1772.11,1151.48"/>
    </edge>
    <edge id="-690499352#1" from="cluster_5551528424_6121897571_6121897574_6121897576" to="6122961727" priority="3" type="highway.residential" shape="1855.69,902.65 1830.07,977.29">
        <lane id="-690499352#1_0" index="0" disallow="tram rail_urban rail rail_electric rail_fast ship" speed="13.89" length="89.61" shape="1855.38,908.49 1833.93,970.96"/>
    </edge>
    <edge id="-690499352#5" from="6123022802" to="cluster_5551528424_6121897571_6121897574_6121897576" priority="3" type="highway.residential" shape="1888.00,809.68 1863.24,881.34">
        <lane id="-690499352#5_0" index="0" disallow="tram rail_urban rail rail_electric rail_fast ship" speed="13.89" length="87.73" shape="1887.15,817.04 1866.57,876.59"/>
    </edge>
    <edge id="-690499352#6" from="6935282969" to="6123022802" priority="3" type="highway.residential">
        <lane id="-690499352#6_0" index="0" disallow="tram rail_urban rail rail_electric rail_fast ship" speed="13.89" length="37.97" shape="1899.51,781.02 1891.83,803.43"/>
    </edge>
    <edge id="-690499352#7" from="6123022801" to="6935282969" priority="3" type="highway.residential">
        <lane id="-690499352#7_0" index="0" disallow="tram rail_urban rail rail_electric rail_fast ship" speed="13.89" length="29.92" shape="1909.33,752.81 1904.21,767.44"/>
    </edge>
    <edge id="-690499352#8" from="412887824" to="6123022801" priority="3" type="highway.residential">
        <lane id="-690499352#8_0" index="0" disallow="tram rail_urban rail rail_electric rail_fast ship" speed="13.89" length="75.38" shape="1933.97,681.65 1914.06,739.22"/>
    </edge>
    <edge id="-690518555" from="6121872627" to="cluster_412887860_6944772569" priority="3" type="highway.residential" shape="2249.03,586.74 2240.37,586.08 2192.03,581.53 2170.96,580.45 2149.91,579.15 2128.88,577.65 2001.44,565.92">
        <lane id="-690518555_0" index="0" disallow="tram rail_urban rail rail_electric rail_fast ship" speed="13.89" length="253.49" shape="2248.91,588.34 2240.23,587.67 2191.91,583.12 2170.87,582.05 2149.81,580.75 2128.75,579.25 2009.97,568.31"/>
    </edge>
    <edge id="-690525239#0" from="412887851" to="6953815263" priority="3" type="highway.residential" shape="1999.81,638.17 2177.64,700.94 2185.43,703.64">
        <lane id="-690525239#0_0" index="0" disallow="tram rail_urban rail rail_electric rail_fast ship" speed="13.89" length="196.83" shape="2006.42,638.80 2178.17,699.43 2185.96,702.12"/>
    </edge>
    <edge id="-690525239#1" from="412887854" to="412887851" priority="3" type="highway.residential" shape="1939.88,627.95 1952.59,627.84 1965.24,629.28 1977.75,631.66 1990.05,634.94 1999.81,638.17">
        <lane id="-690525239#1_0" index="0" disallow="tram rail_urban rail rail_electric rail_fast ship" speed="13.89" length="61.18" shape="1943.52,626.31 1952.68,626.24 1965.48,627.70 1978.11,630.09 1990.51,633.41 1992.63,634.11"/>
    </edge>
    <edge id="-690525239#2" from="6944772563" to="412887854" priority="3" type="highway.residential" shape="1866.52,634.05 1871.34,632.99 1883.15,630.95 1895.04,629.48 1907.05,629.10 1939.88,627.95">
        <lane id="-690525239#2_0" index="0" disallow="tram rail_urban rail rail_electric rail_fast ship" speed="13.89" length="73.76" shape="1873.61,630.97 1882.91,629.36 1894.92,627.89 1906.99,627.50 1933.43,626.57"/>
    </edge>
    <edge id="-690525239#3" from="cluster_412887855_5550352533" to="6944772563" priority="3" type="highway.residential" shape="1848.08,638.74 1859.65,635.58 1866.52,634.05">
        <lane id="-690525239#3_0" index="0" disallow="tram rail_urban rail rail_electric rail_fast ship" speed="13.89" length="23.20" shape="1858.32,634.28 1859.26,634.02 1859.49,633.97"/>
    </edge>
    <edge id="-690525243#0" from="cluster_412887860_6944772569" to="412887851" priority="3" type="highway.residential" shape="2001.44,565.92 2003.76,575.08 2003.88,584.54 1999.81,638.17">
        <lane id="-690525243#0_0" index="0" disallow="tram rail_urban rail rail_electric rail_fast ship" speed="13.89" length="79.24" shape="2005.09,573.79 2005.36,574.87 2005.48,584.59 2002.02,630.22"/>
    </edge>
    <edge id="-690525243#2" from="cluster_6944772549_6944772587" to="cluster_412887860_6944772569" priority="3" type="highway.residential" shape="2005.83,486.91 1996.30,497.74 1988.65,510.12 1982.18,523.76 1980.26,530.02 1980.59,537.04 1983.98,543.20 1989.73,548.41 1994.74,554.32">
        <lane id="-690525243#2_0" index="0" disallow="tram rail_urban rail rail_electric rail_fast ship" speed="13.89" length="91.78" shape="2002.40,493.23 1997.59,498.69 1990.05,510.88 1983.67,524.34 1981.87,530.22 1982.17,536.59 1985.25,542.20 1988.91,545.51"/>
    </edge>
    <edge id="-690696686" from="6480558190" to="6480558191" priority="3" type="highway.residential">
        <lane id="-690696686_0" index="0" disallow="tram rail_urban rail rail_electric rail_fast ship" speed="13.89" length="69.09" shape="1705.77,583.33 1658.65,559.68"/>
    </edge>
    <edge id="-693742289" from="6513223045" to="6513223049" priority="3" type="highway.residential" shape="1560.99,355.32 1534.08,279.59 1510.48,219.90 1507.28,212.42 1491.26,218.29 1444.34,232.27">
        <lane id="-693742289_0" index="0" disallow="tram rail_urban rail rail_electric rail_fast ship" speed="13.89" length="218.71" shape="1556.57,347.64 1532.58,280.15 1509.00,220.51 1506.40,214.44 1491.77,219.80 1444.80,233.80"/>
    </edge>
    <edge id="-740757625" from="6935282968" to="6935282969" priority="3" type="highway.residential">
        <lane id="-740757625_0" index="0" disallow="tram rail_urban rail rail_electric rail_fast ship" speed="13.89" length="45.03" shape="1858.62,756.65 1894.05,769.74"/>
    </edge>
    <edge id="-741853413" from="6944772494" to="6944772493" priority="1" type="highway.service">
        <lane id="-741853413_0" index="0" allow="pedestrian delivery bicycle" speed="5.56" length="37.49" shape="1644.24,451.19 1677.01,452.18"/>
    </edge>
    <edge id="-741853414#0" from="6944772496" to="6944772516" priority="3" type="highway.residential" shape="1299.65,480.66 1302.45,483.55 1308.41,487.13 1315.25,488.38 1322.09,487.13 1326.31,487.06 1330.14,488.75 1332.83,491.95 1333.84,495.98 1334.51,534.95">
        <lane id="-741853414#0_0" index="0" disallow="tram rail_urban rail rail_electric rail_fast ship" speed="13.89" length="80.60" shape="1302.83,481.65 1303.45,482.29 1308.98,485.61 1315.25,486.75 1321.93,485.53 1326.64,485.45 1331.13,487.44 1334.29,491.20 1335.44,495.77 1335.98,527.42"/>
    </edge>
    <edge id="-741853414#1" from="6944772503" to="6944772496" priority="3" type="highway.residential">
        <lane id="-741853414#1_0" index="0" disallow="tram rail_urban rail rail_electric rail_fast ship" speed="13.89" length="53.74" shape="1271.50,445.82 1294.76,472.59"/>
    </edge>
    <edge id="-741853414#2" from="8428387150" to="6944772503" priority="3" type="highway.residential" shape="1274.21,530.46 1215.24,458.26 1213.52,455.17 1213.80,451.65 1215.99,448.87 1239.54,430.92 1244.73,427.88 1250.75,427.72 1256.08,430.51 1264.41,440.10">
        <lane id="-741853414#2_0" index="0" disallow="tram rail_urban rail rail_electric rail_fast ship" speed="13.89" length="164.19" shape="1265.73,522.60 1213.92,459.16 1211.89,455.53 1212.24,451.04 1214.86,447.72 1238.65,429.59 1244.28,426.29 1251.13,426.11 1257.09,429.23 1263.74,436.88"/>
    </edge>
    <edge id="-741853415" from="6944772503" to="6944772496" priority="1" type="highway.service" shape="1264.41,440.10 1291.87,441.37 1296.11,442.61 1299.46,445.48 1301.32,449.47 1301.35,453.87 1299.65,480.66">
        <lane id="-741853415_0" index="0" allow="pedestrian delivery bicycle" speed="5.56" length="71.97" shape="1273.45,438.91 1292.13,439.78 1296.89,441.17 1300.76,444.49 1302.92,449.11 1302.95,453.92 1301.84,471.48"/>
    </edge>
    <edge id="-741853417" from="cluster_6944772549_6944772587" to="6944772548" priority="3" type="highway.residential" shape="2003.51,474.44 1908.53,471.76">
        <lane id="-741853417_0" index="0" disallow="tram rail_urban rail rail_electric rail_fast ship" speed="13.89" length="98.45" shape="1996.70,475.85 1915.88,473.57"/>
    </edge>
    <edge id="-741944730" from="6945656636" to="6945656641" priority="3" type="highway.residential" shape="1208.71,658.75 1216.91,639.50 1226.64,620.97 1237.84,603.28 1250.45,586.54 1266.34,571.31">
        <lane id="-741944730_0" index="0" disallow="tram rail_urban rail rail_electric rail_fast ship" speed="13.89" length="105.76" shape="1208.54,655.05 1215.46,638.81 1225.25,620.17 1236.53,602.37 1249.25,585.48 1259.80,575.37"/>
    </edge>
    <edge id="-742828434#1" from="6121875051" to="cluster_6513161253_7270696627_7270696628" priority="10" type="highway.tertiary" shape="1912.85,404.64 1877.62,404.58 1852.43,404.36">
        <lane id="-742828434#1_0" index="0" disallow="tram rail_urban rail rail_electric rail_fast ship" speed="22.22" length="72.22" shape="1905.47,406.23 1877.61,406.18 1852.41,405.96"/>
    </edge>