<?xml version="1.0" encoding="UTF-8"?>

<!-- generated on 02/19/22 20:29:36 by Eclipse SUMO polyconvert Version 1.8.0
<configuration xmlns:xsi="http://www.w3.org/2001/XMLSchema-instance" xsi:noNamespaceSchemaLocation="http://sumo.dlr.de/xsd/polyconvertConfiguration.xsd">

    <input>
        <net-file value="maamora.net.xml"/>
        <osm-files value="mamora.osm.xml"/>
    </input>

    <output>
        <output-file value="maamora.poly.xml"/>
    </output>

    <processing>
        <poi-layer-offset value="5"/>
    </processing>

</configuration>
-->

<additional xmlns:xsi="http://www.w3.org/2001/XMLSchema-instance" xsi:noNamespaceSchemaLocation="http://sumo.dlr.de/xsd/additional_file.xsd">
    <location netOffset="-215884.74,-3464492.65" convBoundary="-1829.88,-3721.14,4349.07,3586.49" origBoundary="29.996836,31.246681,30.060404,31.313507" projParameter="+proj=utm +zone=36 +ellps=WGS84 +datum=WGS84 +units=m +no_defs"/>

    <poly id="578809527" type="building" color="255,230,230" fill="1" layer="-1.00" shape="1161.796472,903.653226 1166.657741,889.893803 1149.146677,883.762710 1145.675970,893.600344 1152.170255,895.866769 1150.780008,899.799655 1161.796472,903.653226"/>
    <poly id="579537937" type="commercial" color="209,209,204" fill="1" layer="-3.00" shape="1691.678243,405.430174 1688.312361,485.769874 1762.010683,487.382476 1801.304170,510.674181 1811.064502,491.922488 1814.453298,473.342200 1818.605332,442.034273 1821.176448,411.479142 1691.678243,405.430174"/>
    <poly id="579537939" type="commercial" color="209,209,204" fill="1" layer="-3.00" shape="1660.301556,554.842616 1711.869824,580.222959 1794.590697,520.809620 1753.273693,493.510547 1691.039499,493.609304 1660.301556,554.842616"/>
    <poly id="579537941" type="building" color="255,230,230" fill="1" layer="-1.00" shape="1496.731024,698.104051 1492.767770,709.131179 1520.905156,719.138406 1524.868433,708.111292 1496.731024,698.104051"/>
    <poly id="579537943" type="building" color="255,230,230" fill="1" layer="-1.00" shape="1537.985102,710.676830 1551.172835,715.881782 1550.137352,718.484389 1562.322945,723.283519 1566.170908,713.635674 1571.074075,715.567871 1580.786562,691.168332 1584.360218,692.570337 1587.913634,683.662898 1579.995153,680.535614 1581.896537,675.756697 1570.654990,671.331647 1565.986348,683.065803 1574.010491,686.223526 1564.610445,709.837802 1541.886310,700.883268 1537.985102,710.676830"/>
    <poly id="579537945" type="building" color="255,230,230" fill="1" layer="-1.00" shape="1497.924528,732.863991 1495.472282,740.543233 1506.315489,743.980111 1508.776967,736.289526 1497.924528,732.863991"/>
    <poly id="579537947" type="building" color="255,230,230" fill="1" layer="-1.00" shape="1513.159680,739.068058 1510.018792,747.365132 1519.867960,751.050753 1523.008855,742.753683 1513.159680,739.068058"/>
    <poly id="579537949" type="building" color="255,230,230" fill="1" layer="-1.00" shape="1432.663936,405.445319 1431.278475,429.731669 1457.996146,431.231623 1459.381668,406.945282 1432.663936,405.445319"/>
    <poly id="579537951" type="building" color="255,230,230" fill="1" layer="-1.00" shape="1472.926964,431.073648 1499.452141,433.566608 1501.784494,409.043923 1475.268482,406.539606 1472.926964,431.073648"/>
    <poly id="579537953" type="building" color="255,230,230" fill="1" layer="-1.00" shape="1448.769987,468.380817 1450.315623,444.378704 1477.774070,446.136200 1476.218550,470.127471 1448.769987,468.380817"/>
    <poly id="579537955" type="building" color="255,230,230" fill="1" layer="-1.00" shape="1485.268456,466.421181 1483.627809,490.436939 1510.314975,492.226378 1511.955682,468.210628 1485.268456,466.421181"/>
    <poly id="579537956" type="building" color="255,230,230" fill="1" layer="-1.00" shape="1511.485354,428.093118 1509.724135,452.589322 1535.125039,454.391275 1536.886317,429.895079 1511.485354,428.093118"/>
    <poly id="579537958" type="building" color="255,230,230" fill="1" layer="-1.00" shape="1547.232213,454.142964 1549.121543,430.153830 1574.966265,432.154795 1573.077176,456.155009 1547.232213,454.142964"/>
    <poly id="579537960" type="building" color="255,230,230" fill="1" layer="-1.00" shape="1443.124146,491.250401 1441.557458,518.715649 1469.353503,520.275346 1470.920262,492.810108 1443.124146,491.250401"/>
    <poly id="579537962" type="building" color="255,230,230" fill="1" layer="-1.00" shape="1482.418761,530.477614 1483.468564,502.926422 1510.611293,503.937831 1509.561420,531.489015 1482.418761,530.477614"/>
    <poly id="579537964" type="building" color="255,230,230" fill="1" layer="-1.00" shape="1561.509057,552.885389 1563.129632,525.640696 1591.271159,527.291291 1589.660037,554.535717 1561.509057,552.885389"/>
    <poly id="579537966" type="building" color="255,230,230" fill="1" layer="-1.00" shape="1564.065251,514.018155 1565.601842,489.317156 1593.191668,491.004815 1591.655014,515.705806 1564.065251,514.018155"/>
    <poly id="579537967" type="building" color="255,230,230" fill="1" layer="-1.00" shape="1602.129026,568.793822 1603.743040,540.239765 1632.483925,541.852134 1630.869536,570.395091 1602.129026,568.793822"/>
    <poly id="579537969" type="building" color="255,230,230" fill="1" layer="-1.00" shape="1620.307423,504.469120 1618.990563,531.672318 1648.059133,533.065050 1649.385591,505.861604 1620.307423,504.469120"/>
    <poly id="579537971" type="building" color="255,230,230" fill="1" layer="-1.00" shape="1593.768599,453.311782 1592.623098,479.089837 1620.695949,480.309552 1621.841518,454.531504 1593.768599,453.311782"/>
    <poly id="579537973" type="building" color="255,230,230" fill="1" layer="-1.00" shape="1587.596195,411.672015 1585.516915,436.043576 1613.429553,438.388487 1615.509195,414.028026 1587.596195,411.672015"/>
    <poly id="579537975" type="building" color="255,230,230" fill="1" layer="-1.00" shape="1634.035862,412.552716 1632.631845,437.583054 1661.286385,439.164559 1662.690468,414.134230 1634.035862,412.552716"/>
    <poly id="579537976" type="building" color="255,230,230" fill="1" layer="-1.00" shape="1634.714823,466.104167 1633.736025,493.475824 1664.445185,494.558101 1665.424062,467.186452 1634.714823,466.104167"/>
    <poly id="579537978" type="building" color="255,230,230" fill="1" layer="-1.00" shape="1518.861683,699.883003 1508.660384,696.217960 1509.991298,692.553087 1501.984126,689.672403 1505.773648,679.271446 1510.518190,680.974832 1518.814943,658.155969 1523.867840,659.984232 1527.603837,649.717903 1536.967932,653.083672 1534.794051,659.068516 1549.037803,664.200643 1544.707890,676.125452 1541.233642,674.876154 1540.541250,676.770352 1529.791405,672.909197 1532.932903,664.279180 1527.225816,662.224374 1522.665031,674.776897 1520.903946,674.147348 1515.810867,688.168041 1522.278092,690.490916 1518.861683,699.883003"/>
    <poly id="579537981" type="building" color="255,230,230" fill="1" layer="-1.00" shape="1564.427264,610.649300 1546.958597,604.327718 1541.019198,620.546378 1538.391398,619.585029 1536.678109,624.270106 1543.819803,626.863382 1539.896320,637.600865 1527.239800,633.014196 1528.642443,629.180926 1521.173648,626.474391 1525.088191,615.759336 1530.391415,617.680746 1539.082545,593.930161 1544.241424,595.799975 1547.703729,586.340080 1555.644292,589.222598 1553.495670,595.084677 1568.173444,600.404913 1564.427264,610.649300"/>
    <poly id="579537983" type="building" color="255,230,230" fill="1" layer="-1.00" shape="1551.346128,630.644884 1548.508108,638.512061 1553.194919,640.194826 1549.753174,649.709657 1559.116663,653.053266 1560.571081,649.018844 1584.225327,657.471174 1585.706533,653.369447 1595.753066,656.949949 1599.354336,646.986924 1592.098385,644.396689 1592.577742,643.085325 1595.916867,644.271690 1600.120684,632.616655 1588.351438,628.416650 1582.985694,643.288084 1585.574194,644.206109 1584.403629,647.456029 1559.383233,638.529975 1560.988811,634.091957 1551.346128,630.644884"/>
    <poly id="579537986" type="building" color="255,230,230" fill="1" layer="-1.00" shape="1578.436154,614.844470 1595.521137,621.076548 1593.709033,625.986233 1605.124999,630.162460 1609.050938,619.513726 1602.255404,617.033165 1605.666577,607.796629 1597.099825,604.664584 1595.332051,609.450997 1585.225346,605.761131 1584.292513,608.283283 1581.270054,607.177178 1578.436154,614.844470"/>
    <poly id="579537987" type="tourism" color="207,245,201" fill="1" layer="-2.00" shape="1642.800288,587.675266 1677.689534,603.494071 1682.739056,604.135023 1687.263107,602.603827 1691.417084,599.362413 1692.479776,597.769005 1693.669482,595.228854 1705.067766,585.999367 1655.026166,562.453517 1642.800288,587.675266"/>
    <poly id="579539972" type="building" color="255,230,230" fill="1" layer="-1.00" shape="1575.728326,763.474462 1584.213100,766.397824 1582.009789,772.705292 1619.633735,785.686837 1623.146565,775.626315 1588.350948,763.622908 1590.943453,756.195170 1596.176644,757.996412 1599.883761,747.364656 1588.359003,743.391138 1583.749443,756.610823 1578.727863,754.881574 1575.728326,763.474462"/>
    <poly id="579539973" type="building" color="255,230,230" fill="1" layer="-1.00" shape="1631.898696,776.445006 1653.572639,723.734546 1664.654273,728.241665 1642.980289,780.952099 1631.898696,776.445006"/>
    <poly id="579539974" type="building" color="255,230,230" fill="1" layer="-1.00" shape="1594.678657,719.349313 1592.541694,725.643891 1625.222157,736.605569 1623.809111,740.760945 1619.067603,739.168410 1613.823076,754.646956 1626.566287,758.920636 1631.272569,745.043593 1636.427476,746.769278 1640.516070,734.728931 1594.678657,719.349313"/>
    <poly id="579539975" type="building" color="255,230,230" fill="1" layer="-1.00" shape="1646.872749,629.560235 1643.085486,640.404982 1637.852250,638.603712 1625.923991,672.751326 1631.042032,674.522396 1627.466959,684.751054 1614.874253,680.406725 1616.068915,676.989691 1608.285894,674.291560 1612.285855,662.852878 1615.373768,663.912836 1624.541020,637.663580 1621.135529,636.490090 1624.400866,627.146507 1631.874536,624.370600 1646.872749,629.560235"/>
    <poly id="579539976" type="building" color="255,230,230" fill="1" layer="-1.00" shape="1658.280501,646.887791 1667.657054,650.364317 1661.353272,667.214186 1680.404557,674.270200 1675.949802,686.165007 1673.668174,685.316388 1664.402823,710.047819 1661.486060,708.972143 1657.920143,718.479177 1643.682173,713.202486 1645.211011,709.099487 1632.994817,704.578535 1637.422735,692.751014 1656.406733,699.786597 1664.150959,679.091358 1653.166931,675.025525 1654.642816,671.079325 1645.401102,667.654672 1647.996990,660.704076 1652.483173,662.370087 1658.280501,646.887791"/>
    <poly id="579545279" type="building" color="255,230,230" fill="1" layer="-1.00" shape="1536.687996,800.183432 1534.200605,801.249232 1532.889414,799.275813 1530.904127,800.583346 1528.824465,798.386467 1525.852624,800.219977 1522.295088,799.061716 1520.661321,803.866736 1518.676036,805.174271 1519.482471,807.161282 1517.553900,810.220767 1515.663295,815.043804 1520.189724,814.666647 1523.864895,819.839198 1527.348059,818.236072 1528.174799,820.977197 1529.950129,821.428794 1535.669146,818.267235 1535.842400,815.499180 1535.035969,813.512168 1538.526005,812.164114 1535.619607,807.226108 1537.551137,803.922393 1539.258976,801.867673 1536.687996,800.183432"/>
    <poly id="579546024" type="building" color="255,230,230" fill="1" layer="-1.00" shape="1546.029361,803.771767 1536.254238,833.977276 1551.424218,838.829188 1561.199676,808.634786 1546.029361,803.771767"/>
    <poly id="579546026" type="building" color="255,230,230" fill="1" layer="-1.00" shape="1564.857912,811.055514 1571.011002,812.687699 1570.093161,816.119483 1576.639706,817.852056 1574.621044,825.353133 1570.262933,824.194217 1566.339877,838.838165 1558.007596,836.620984 1564.857912,811.055514"/>
    <poly id="579546027" type="building" color="255,230,230" fill="1" layer="-1.00" shape="1583.436129,818.246151 1595.722411,822.188054 1586.650245,850.188282 1574.364289,846.257481 1583.436129,818.246151"/>
    <poly id="579546028" type="building" color="255,230,230" fill="1" layer="-1.00" shape="1602.160758,825.566051 1614.877710,829.929200 1612.673295,851.063543 1595.377400,845.125698 1602.160758,825.566051"/>
    <poly id="579546029" type="building" color="255,230,230" fill="1" layer="-1.00" shape="1592.580195,849.551406 1611.537687,855.610980 1611.210187,871.412172 1587.915406,863.549439 1590.583139,855.731243 1592.580195,849.551406"/>
    <poly id="579546030" type="building" color="255,230,230" fill="1" layer="-1.00" shape="1593.435984,871.424612 1611.465224,878.052974 1610.390191,880.956285 1612.219096,881.628411 1610.681377,885.753855 1608.708125,885.030126 1607.250449,888.942555 1591.107570,882.995875 1592.795837,878.444652 1591.063362,877.814324 1593.435984,871.424612"/>
    <poly id="579546031" type="building" color="255,230,230" fill="1" layer="-1.00" shape="1562.919713,875.342632 1575.555662,879.530343 1581.967860,860.346902 1569.332192,856.170271 1562.919713,875.342632"/>
    <poly id="579546032" type="building" color="255,230,230" fill="1" layer="-1.00" shape="1545.586421,870.493475 1556.162250,874.270529 1562.759913,855.958817 1550.904277,851.727909 1549.006566,856.995049 1550.286358,857.448895 1545.586421,870.493475"/>
    <poly id="579546033" type="building" color="255,230,230" fill="1" layer="-1.00" shape="1539.224865,867.135642 1530.814252,864.132639 1532.943143,858.248882 1530.229386,857.278757 1531.329388,854.241588 1529.395114,853.550117 1532.916491,843.811164 1543.136391,847.464617 1540.483821,854.783012 1543.322579,855.794165 1539.224865,867.135642"/>
    <poly id="579546034" type="building" color="255,230,230" fill="1" layer="-1.00" shape="1519.284533,857.140696 1512.414721,854.728794 1513.947630,850.425895 1504.903053,847.240221 1507.888830,838.847437 1523.803231,844.445020 1519.284533,857.140696"/>
    <poly id="579546035" type="building" color="255,230,230" fill="1" layer="-1.00" shape="1513.499887,836.632098 1528.892839,841.977381 1534.256547,826.684230 1524.953623,823.461104 1523.183575,828.513950 1525.598520,829.358945 1523.748135,834.613717 1515.252973,831.657393 1513.565352,833.400831 1513.499887,836.632098"/>
    <poly id="579546036" type="building" color="255,230,230" fill="1" layer="-1.00" shape="1508.201800,831.358987 1513.565352,833.400831 1514.723093,830.384301 1520.000035,832.395187 1523.830320,822.448148 1513.199341,818.395157 1508.201800,831.358987"/>
    <poly id="579548487" type="building" color="255,230,230" fill="1" layer="-1.00" shape="1139.024800,811.654560 1142.440727,812.860907 1143.601313,809.600093 1151.414459,812.352562 1153.788592,805.674137 1153.041506,805.183776 1153.998300,802.494457 1146.656598,799.906840 1145.230035,803.907293 1140.784595,802.340279 1140.022672,804.480543 1141.398627,804.965043 1139.024800,811.654560"/>
    <poly id="579548489" type="building" color="255,230,230" fill="1" layer="-1.00" shape="1143.789545,790.073649 1160.413511,795.818044 1163.823589,786.204015 1158.995100,784.569635 1158.271221,786.353736 1152.094448,784.200817 1152.595989,782.300634 1147.208836,780.448267 1143.789545,790.073649"/>
    <poly id="579548490" type="building" color="255,230,230" fill="1" layer="-1.00" shape="1149.860846,775.238382 1163.776601,779.513194 1165.945759,773.361907 1162.798583,772.225991 1163.727112,769.548534 1166.862327,770.240853 1168.517984,765.546152 1154.481946,761.052616 1149.860846,775.238382"/>
    <poly id="579548491" type="amenity" color="237,199,199" fill="1" layer="-1.00" shape="1117.216061,763.500319 1122.591266,764.909075 1123.841409,761.434982 1129.105318,762.957722 1140.854944,773.494700 1150.557032,761.824334 1142.771431,753.732985 1140.029056,755.238579 1137.410626,753.211670 1135.028500,755.706370 1133.560796,754.647249 1130.313340,758.275085 1127.031485,756.033012 1128.803852,751.779075 1122.170460,749.305546 1117.216061,763.500319"/>
    <poly id="579548491#1" type="building" color="255,230,230" fill="1" layer="-1.00" shape="1117.216061,763.500319 1122.591266,764.909075 1123.841409,761.434982 1129.105318,762.957722 1140.854944,773.494700 1150.557032,761.824334 1142.771431,753.732985 1140.029056,755.238579 1137.410626,753.211670 1135.028500,755.706370 1133.560796,754.647249 1130.313340,758.275085 1127.031485,756.033012 1128.803852,751.779075 1122.170460,749.305546 1117.216061,763.500319"/>
    <poly id="579550475" type="building" color="255,230,230" fill="1" layer="-1.00" shape="1176.437703,903.735630 1181.672338,907.356699 1181.055964,909.592917 1192.286066,913.240993 1193.300687,911.282585 1200.807059,912.911359 1201.232217,907.117843 1202.987906,907.547719 1204.352380,904.425689 1202.586224,903.607666 1202.850361,902.446353 1180.064445,894.382112 1176.437703,903.735630"/>
    <poly id="579550476" type="building" color="255,230,230" fill="1" layer="-1.00" shape="1150.464806,876.802016 1156.790364,879.172876 1155.411683,882.828000 1167.280303,887.180203 1171.716611,873.565420 1154.166187,867.035849 1150.464806,876.802016"/>
    <poly id="579550477" type="building" color="255,230,230" fill="1" layer="-1.00" shape="1182.210972,885.978544 1187.894840,888.233548 1187.180535,890.372525 1198.919685,894.872527 1199.911286,892.060195 1206.852272,894.281314 1210.433044,883.575095 1186.184243,874.984281 1182.210972,885.978544"/>
    <poly id="579550478" type="building" color="255,230,230" fill="1" layer="-1.00" shape="1189.025863,870.091134 1191.941449,871.122319 1192.887615,869.099170 1195.927008,870.127018 1196.972255,867.890336 1213.259745,873.532892 1215.026694,868.724217 1207.600493,865.828098 1208.751611,862.922684 1193.791143,857.011295 1189.025863,870.091134"/>
    <poly id="579550479" type="building" color="255,230,230" fill="1" layer="-1.00" shape="1162.982055,840.529174 1180.188763,847.034736 1183.890303,835.859136 1166.809828,829.794081 1162.982055,840.529174"/>
    <poly id="579550480" type="building" color="255,230,230" fill="1" layer="-1.00" shape="1198.912321,852.889038 1210.136836,856.681562 1211.906777,851.983786 1220.653792,854.733319 1222.910637,847.591960 1211.097308,842.816478 1209.508096,845.733703 1202.439682,843.382840 1198.912321,852.889038"/>
    <poly id="579550481" type="building" color="255,230,230" fill="1" layer="-1.00" shape="1156.152984,859.424540 1174.680473,865.783494 1179.022599,853.269957 1160.704867,846.561299 1156.152984,859.424540"/>
    <poly id="579550482" type="building" color="255,230,230" fill="1" layer="-1.00" shape="1170.628268,820.479786 1187.131559,825.639277 1190.219469,817.154841 1173.458382,811.624964 1170.628268,820.479786"/>
    <poly id="579550483" type="building" color="255,230,230" fill="1" layer="-1.00" shape="1203.360990,830.539825 1209.034715,832.417785 1208.084145,834.984852 1217.771467,838.674557 1218.728616,836.351469 1225.431197,838.212798 1228.618381,828.460529 1206.684779,820.905943 1203.360990,830.539825"/>
    <poly id="579550484" type="building" color="255,230,230" fill="1" layer="-1.00" shape="1177.280334,801.733482 1183.976711,803.717032 1183.640315,805.379702 1192.418385,808.572299 1193.731920,804.974429 1195.018570,805.328167 1196.909246,799.805883 1179.743265,793.399071 1177.280334,801.733482"/>
    <poly id="579550485" type="building" color="255,230,230" fill="1" layer="-1.00" shape="1209.144437,812.449551 1215.132454,814.319041 1214.245258,816.762321 1224.694194,820.420402 1225.706353,817.663011 1232.217316,819.840254 1235.551599,810.594530 1212.451839,802.560860 1209.144437,812.449551"/>
    <poly id="579550486" type="building" color="255,230,230" fill="1" layer="-1.00" shape="1213.958838,796.593907 1220.414468,798.839223 1221.498378,796.268563 1234.663826,800.996512 1237.624685,792.393443 1224.338708,787.790816 1224.922089,785.744157 1218.844116,783.366578 1213.958838,796.593907"/>
    <poly id="579550487" type="building" color="255,230,230" fill="1" layer="-1.00" shape="1182.283048,787.914772 1190.141977,790.244311 1192.066398,785.620054 1200.958124,788.432263 1203.438120,780.729984 1186.162702,775.213949 1182.283048,787.914772"/>
    <poly id="579551268" type="building" color="255,230,230" fill="1" layer="-1.00" shape="1199.782702,616.511782 1218.905491,622.666137 1220.335662,623.393343 1236.205886,601.169094 1207.034485,593.487729 1205.683286,598.518247 1208.085588,599.951711 1204.320572,611.606212 1201.097636,611.903963 1199.782702,616.511782"/>
    <poly id="579551269" type="building" color="255,230,230" fill="1" layer="-1.00" shape="1180.724798,639.277060 1150.430544,629.539709 1152.025807,627.199410 1149.318782,626.129311 1152.646533,621.589286 1153.209280,618.777419 1157.963954,619.792306 1158.807771,617.860700 1153.768439,615.832473 1155.459974,607.518861 1157.528256,608.228853 1158.623286,606.423649 1169.730241,610.441287 1171.229509,609.135692 1188.528819,615.527826 1188.443622,617.316899 1191.030422,618.523424 1186.916838,627.146485 1182.773066,625.105198 1181.143111,626.159061 1182.326304,627.270252 1186.584020,628.942233 1184.058493,634.603709 1185.242626,636.103305 1184.649074,637.772908 1182.597201,637.317723 1180.724798,639.277060"/>
    <poly id="579551270" type="building" color="255,230,230" fill="1" layer="-1.00" shape="1146.915869,629.268248 1133.474616,624.925154 1134.055002,622.767591 1114.776268,617.194686 1113.740438,618.720849 1115.519266,609.050919 1114.120096,608.766810 1115.507733,600.494679 1121.520178,592.308691 1126.762062,595.485632 1127.945725,595.553595 1131.243728,598.039393 1132.512118,597.361506 1134.378099,598.698436 1136.853477,598.953527 1141.848146,600.738796 1150.959734,603.922381 1150.029512,605.123851 1149.407899,606.106137 1152.264503,608.481766 1151.653554,613.747588 1146.489438,613.454015 1144.923252,615.105456 1150.139101,617.317585 1146.915869,629.268248"/>
    <poly id="579551272" type="building" color="255,230,230" fill="0" layer="-1.00" shape="1106.720115,573.630368 1104.441098,572.881676 1105.493036,571.599234 1103.544527,569.676340 1102.848099,567.531013 1104.807209,566.312890 1103.423100,565.173830 1104.278113,560.123381 1106.695155,555.741079 1111.766020,559.643996 1113.195446,556.808754 1118.306107,560.066918 1120.219049,558.550397 1122.862809,560.454546 1123.863035,559.728399 1140.286652,562.270882 1143.010704,559.023403 1145.448864,561.432510 1150.233166,556.475880 1155.215396,560.980499 1159.191448,556.800330 1164.369854,556.915958 1168.205688,559.553737 1165.359610,562.871086 1164.324995,562.321887 1162.599670,564.787767 1161.695744,564.490298 1159.857075,567.347665 1159.799092,570.145921 1158.006160,572.225196 1159.267138,574.100049 1158.588932,574.750921 1162.235776,577.449283 1160.677866,578.700970 1164.669156,582.155806 1162.331445,585.592625 1162.990183,586.340625 1159.238711,591.779909 1147.811460,587.548957 1146.761223,588.187666 1139.820397,584.213080 1137.880081,585.774727 1129.588963,579.794529 1127.143371,582.057880 1125.825681,581.261064 1124.131839,583.126812 1122.350718,582.109436 1116.722973,589.363915 1113.177075,598.537697 1113.404088,600.240666 1110.642924,601.757868 1110.687367,600.225147 1109.704352,600.529107 1109.745326,602.048427 1111.935496,606.217696 1110.160040,607.530749 1111.232730,610.198632 1109.916864,611.943210 1108.307662,612.352841"/>
    <poly id="579551273" type="building" color="255,230,230" fill="1" layer="-1.00" shape="1106.727723,549.880461 1108.547154,550.197628 1108.273835,551.725424 1118.530265,553.535255 1121.104649,539.082837 1128.315706,540.353316 1127.926691,542.539012 1129.765469,542.866759 1128.855391,547.996375 1126.786842,547.630432 1125.628158,547.428620 1125.074084,550.562096 1127.056617,550.919260 1126.600682,553.450799 1136.943122,555.269426 1137.290199,553.295723 1139.406665,553.671474 1143.669797,529.740238 1141.208667,529.307192 1135.989367,528.382523 1131.718328,527.632050 1130.584592,534.010672 1123.316088,532.730642 1124.466475,526.262787 1114.727308,524.549977 1114.180965,527.616658 1110.800442,527.019747 1106.727723,549.880461"/>
    <poly id="579551274" type="building" color="255,230,230" fill="1" layer="-1.00" shape="1116.906151,512.394412 1120.125299,484.740197 1131.082040,486.009557 1130.308163,492.655923 1136.388787,493.357602 1137.000341,488.113959 1149.400590,489.544178 1146.559833,513.914267 1134.551593,512.528974 1135.938218,500.683325 1128.566767,499.827789 1126.964017,513.554828 1116.906151,512.394412"/>
    <poly id="579551275" type="building" color="255,230,230" fill="1" layer="-1.00" shape="1137.771519,485.962351 1149.028285,487.401207 1150.660676,474.772077 1158.684860,475.798696 1157.091409,488.104933 1169.084809,489.646026 1172.336275,464.598997 1159.577632,462.956453 1158.710586,469.683013 1151.422741,468.747519 1152.394160,461.296774 1141.156415,459.857399 1137.771519,485.962351"/>
    <poly id="579551276" type="building" color="255,230,230" fill="1" layer="-1.00" shape="1165.956237,523.845582 1166.289102,522.404967 1164.246730,521.949527 1169.937517,496.881117 1181.444411,499.467452 1179.918704,506.156278 1188.193860,508.008499 1189.701421,501.353458 1199.559107,503.573649 1199.226835,505.036442 1201.940375,505.640265 1196.990211,527.425878 1194.017434,526.751360 1193.429043,529.319758 1186.563204,527.773576 1183.964554,527.188856 1186.767576,514.850015 1178.175740,512.917549 1176.736307,519.271110 1177.628022,519.469028 1176.110948,526.124329 1165.956237,523.845582"/>
    <poly id="579552577" type="building" color="255,230,230" fill="1" layer="-1.00" shape="1680.801596,852.259292 1693.999705,856.443110 1687.351118,877.119948 1670.560641,870.835446 1680.801596,852.259292"/>
    <poly id="579552579" type="building" color="255,230,230" fill="1" layer="-1.00" shape="1698.355114,880.519382 1693.111287,878.673991 1699.898997,859.624809 1704.315140,861.170641 1702.321551,866.773265 1704.842423,867.659839 1706.969616,861.709585 1716.206665,864.967930 1712.325406,875.859579 1710.107856,875.619617 1704.623411,891.037984 1695.723289,887.903758 1698.355114,880.519382"/>
    <poly id="579552580" type="building" color="255,230,230" fill="1" layer="-1.00" shape="1664.794745,875.796058 1669.629033,877.297326 1670.130090,875.730128 1676.031356,877.568910 1677.152122,880.612871 1681.778407,882.530367 1679.101278,888.939348 1672.480015,886.198817 1671.154396,889.353020 1669.650794,888.727617 1668.558462,891.342840 1659.681794,887.664213 1665.400726,879.897082 1663.855118,878.773403 1664.794745,875.796058"/>
    <poly id="579552613" type="building" color="255,230,230" fill="1" layer="-1.00" shape="1492.791985,879.173397 1510.871233,885.178760 1506.133966,899.311969 1488.045214,893.306873 1492.791985,879.173397"/>
    <poly id="579555422" type="building" color="255,230,230" fill="1" layer="-1.00" shape="1147.153438,722.551542 1154.811272,725.197228 1156.731416,719.707436 1159.252083,720.582795 1161.251366,714.846715 1159.336682,714.176974 1161.459732,708.082421 1150.098120,704.160453 1147.391059,711.924358 1150.488841,712.995015 1147.153438,722.551542"/>
    <poly id="579555424" type="building" color="255,230,230" fill="1" layer="-1.00" shape="1166.309738,728.893549 1174.627442,731.976472 1179.250918,719.644023 1176.892159,718.764293 1178.910844,713.393927 1168.734988,709.617537 1165.721403,717.678248 1169.928478,719.240605 1166.309738,728.893549"/>
    <poly id="579555426" type="building" color="255,230,230" fill="1" layer="-1.00" shape="1189.727439,735.986334 1197.851663,738.963511 1199.913188,733.414427 1201.491840,733.993353 1203.365925,728.915439 1201.690838,728.294721 1204.898422,719.651697 1198.862987,717.439448 1198.258421,719.053857 1192.954570,717.110435 1190.155788,724.654839 1193.476795,725.874861 1189.727439,735.986334"/>
    <poly id="579555433" type="building" color="255,230,230" fill="1" layer="-1.00" shape="1231.126547,739.076347 1247.273312,743.735046 1248.508294,740.050519 1258.943536,743.198503 1262.263352,734.474788 1244.077714,728.428290 1243.677926,730.214744 1235.374595,727.664083 1231.126547,739.076347"/>
    <poly id="579555435" type="building" color="255,230,230" fill="1" layer="-1.00" shape="1236.839855,715.905116 1241.554073,717.542613 1240.115288,721.798631 1257.072921,727.545286 1260.200599,719.825569 1255.603363,718.284792 1256.338922,716.933207 1251.849435,715.500508 1252.817410,713.931796 1248.983066,708.164323 1250.206096,704.036201 1241.563434,701.272721 1236.839855,715.905116"/>
    <poly id="579555437" type="building" color="255,230,230" fill="1" layer="-1.00" shape="1208.642680,711.471418 1210.105853,712.009066 1209.378671,713.671173 1223.536113,717.717593 1224.082942,716.082546 1225.042800,716.334119 1230.957356,698.506687 1215.008293,692.699584 1213.081796,700.076190 1211.709419,699.724759 1211.010639,702.440408 1215.697448,703.767890 1214.549127,707.838514 1210.353716,706.708646 1208.642680,711.471418"/>
    <poly id="579555440" type="building" color="255,230,230" fill="1" layer="-1.00" shape="1189.588665,704.327522 1202.177385,708.516093 1208.366650,690.980885 1195.176072,686.386807 1189.588665,704.327522"/>
    <poly id="579555442" type="building" color="255,230,230" fill="1" layer="-1.00" shape="1171.310794,696.985162 1172.840937,697.532097 1172.200924,698.892211 1182.256865,702.816113 1183.036614,700.275846 1180.383763,699.093301 1183.551586,691.450160 1188.322967,693.086094 1190.747127,686.139984 1188.622018,685.442617 1189.642514,682.640606 1178.665133,678.830324 1175.042180,688.328004 1178.016753,689.424187 1177.081677,692.212798 1173.599693,691.385550 1171.310794,696.985162"/>
    <poly id="579555445" type="building" color="255,230,230" fill="1" layer="-1.00" shape="1154.072049,693.188364 1161.927765,695.395898 1163.714631,690.264838 1167.196362,691.436128 1170.609901,680.534647 1164.284876,678.541085 1165.581379,674.311087 1157.979505,671.974625 1154.559097,682.621043 1157.396153,683.565557 1154.072049,693.188364"/>